281

  C         2.711456        9.905012        6.835813
  H         2.811278        9.407434        7.802722
  H         1.829214       10.542844        6.750465
  H         2.552882        9.137101        6.075793
  S         4.142687       10.948283        6.428576
  O          1.630366       12.053395        4.051737
  H         1.943915       11.926900        4.947236
  H         1.401430       11.173762        3.751628
  O          6.535605        3.940003       11.516950
  H         7.419507        4.151410       11.817377
  H         6.300868        3.148533       12.001413
  O          2.676835        2.327417       11.115583
  H         3.148907        2.702979       11.858774
  H         3.329367        1.793480       10.662433
  O          0.536421       10.041334       13.985151
  H         0.256717       10.956491       14.007181
  H         0.018802        9.649549       13.281727
  O          2.411586        8.362165       11.059168
  H         3.028788        8.868272       10.530822
  H         1.863859        7.908412       10.418593
  O          5.012137       10.928041        3.495120
  H         4.800107       10.033350        3.229032
  H         4.636877       11.012537        4.371631
  O         10.564109        3.536690        3.773021
  H         9.872444        3.967865        3.271104
  H        11.372169        3.768174        3.315106
  O          5.007252        4.639406        2.641224
  H         5.229422        4.240697        3.482594
  H         4.155309        4.265370        2.416453
  O          0.823717        7.125865        9.176930
  H         0.209496        7.783934        8.851493
  H         1.012523        6.577219        8.415633
  O         12.859774        4.044373        2.337456
  H        12.572792        4.852081        1.911451
  H        13.474200        4.334439        3.011676
  O          8.762142        6.317894        9.879374
  H         9.113302        6.723531        9.086671
  H         7.824681        6.509217        9.851203
  O          4.474370        8.194840        2.575004
  H         4.703034        7.319118        2.263469
  H         4.078421        8.623226        1.816095
  O          5.078909        1.971937       10.095184
  H         5.327962        2.850966       10.380691
  H         4.694707        2.101602        9.228116
  O          1.069610        6.734118        2.747245
  H         0.347524        6.242558        3.138643
  H         1.544187        6.087462        2.224899
  O         11.198013        4.954079       10.060511
  H        11.344661        4.642579       10.953648
  H        10.290450        5.258311       10.058943
  O          8.529480        4.489766        2.295792
  H         8.708190        5.327396        1.868392
  H         7.789086        4.669660        2.875176
  O          1.365885        1.694811        3.283048
  H         0.734191        1.027840        3.552018
  H         2.090006        1.198741        2.901216
  O          8.674188       11.366071       12.049859
  H         8.640876       12.321221       12.102864
  H         8.538368       11.172783       11.122269
  O         12.645761        8.155092       13.379840
  H        12.322706        9.003239       13.075678
  H        13.087397        7.779803       12.618034
  O          6.161347        7.363288        9.554278
  H         5.530365        6.722219        9.881577
  H         5.915387        7.495562        8.638724
  O          2.021527        3.979857        2.167633
  H         1.782133        3.318981        2.817376
  H         1.835455        3.565697        1.324971
  O         12.934875       12.838669        5.688231
  H        12.571141       13.712145        5.543422
  H        12.226504       12.350867        6.108341
  O          7.944965        9.417198       10.226804
  H         7.946480        9.827806        9.362147
  H         7.133717        8.909663       10.249512
  O          5.876328       12.745177       10.643308
  H         5.551043       13.590695       10.334241
  H         6.752735       12.933830       10.978794
  O          2.192591       12.616636        8.358644
  H         2.720524       11.967764        7.893366
  H         1.668403       13.033741        7.674919
  O         13.103122       10.805772       12.037445
  H        12.825278       11.670295       12.340159
  H        12.441876       10.553771       11.392867
  O          5.055234        7.882030        6.999228
  H         4.457131        8.155265        6.303636
  H         5.349558        8.701164        7.397507
  O         12.456273        1.149802        1.252884
  H        12.912956        0.442828        1.708802
  H        12.275229        1.796812        1.934671
  O          5.028137        4.632219        7.981931
  H         4.739862        5.182343        8.710280
  H         5.817260        5.063358        7.653852
  O          0.518458        0.279962        6.565188
  H         0.412044        1.226315        6.468628
  H        -0.354944       -0.076960        6.403917
  O          8.314821        0.388894       10.789303
  H         8.463590        0.183652        9.866278
  H         9.099306        0.867159       11.057775
  O          0.662241        3.760133        9.943995
  H         1.345774        3.176037       10.272394
  H         1.095641        4.608745        9.853148
  O          9.769756        0.880876        4.774476
  H         9.169632        1.304299        5.388313
  H        10.406957        1.560630        4.555062
  O         13.773717        6.193840       11.103765
  H        14.368292        6.662078       10.517707
  H        13.399354        5.500062       10.560852
  O          0.462873        9.597895        3.037010
  H         0.967324        8.844946        2.729067
  H         0.018311        9.924471        2.254741
  O          3.413288       13.531674        2.048577
  H         4.234100       14.022048        2.003492
  H         3.424119       13.125712        2.915358
  O          9.571718        0.013488        8.309933
  H        10.229158       -0.629228        8.043624
  H        10.018234        0.857039        8.237291
  O         -0.080282        5.097494       13.396612
  H        -0.336286        5.465186       12.550742
  H         0.652913        5.642355       13.682590
  O          5.227942        1.825257        0.760894
  H         6.157467        1.699616        0.951753
  H         5.060418        1.262378        0.005027
  O         14.101881        5.141949        4.524774
  H        13.294456        5.594398        4.768876
  H        14.613668        5.112442        5.333127
  O         10.954158        9.508498        4.985901
  H        11.908900        9.467095        4.931273
  H        10.713248       10.240169        4.417699
  O          3.535783        9.343625        0.334762
  H         4.046214        9.784896       -0.344188
  H         2.671404        9.752165        0.288118
  O          6.197948       13.497598        6.218868
  H         5.558957       12.870599        5.880057
  H         6.727144       12.991015        6.834951
  O          3.151762        7.002316        4.458892
  H         2.265829        7.093760        4.108190
  H         3.718861        7.350331        3.770767
  O         12.112913        6.429001        5.680259
  H        11.163014        6.436860        5.562524
  H        12.392159        7.310651        5.433384
  O          3.899054        3.648969       13.156545
  H         4.384699        3.197142       13.846642
  H         3.777424        4.537337       13.491567
  O          7.975737        1.874138        1.199072
  H         8.482107        2.213011        0.460840
  H         7.936325        2.603692        1.817481
  O          7.273610        7.048656       13.943334
  H         7.265113        7.945564       14.277574
  H         8.069180        6.998032       13.413487
  O          7.199866        6.032816        6.440202
  H         6.888721        6.860893        6.074538
  H         7.089533        5.400813        5.729829
  O          0.267896        0.601138       11.623884
  H         0.904122        1.166545       12.061792
  H         0.783939       -0.140844       11.308617
  O          1.634104       11.825665       11.034224
  H         1.920466       10.914871       11.102654
  H         2.025529       12.139194       10.218922
  O         11.401268       11.725587        7.800634
  H        11.377842       10.823686        8.120412
  H        12.170179       12.109303        8.222260
  O          0.788004        3.556891        6.902350
  H         0.426263        3.751091        7.767025
  H         1.428294        4.251695        6.749029
  O          9.495889        7.419451        7.361966
  H         9.357464        8.250093        6.906877
  H         8.657172        6.963910        7.289383
  O          7.070302        8.169038        4.155497
  H         7.257719        9.072579        4.409898
  H         6.416079        8.246526        3.461076
  O          3.958904       12.088768       12.763566
  H         3.088618       12.264530       12.405875
  H         4.532616       12.066465       11.997675
  O          9.723575        7.193165        4.416257
  H         9.949046        8.115649        4.536331
  H         8.775842        7.193762        4.281968
  O         11.396468        8.835093        8.838748
  H        11.073742        8.645611        9.719757
  H        10.784387        8.383991        8.257288
  O          7.113509       10.299031        7.490333
  H         7.269828       10.324208        6.546319
  H         6.187099       10.520176        7.585684
  O         12.464526        6.746922        2.004446
  H        11.609211        7.128659        2.201790
  H        12.816271        7.296509        1.304116
  O          5.642225       11.927454        0.778800
  H         5.102203       11.604431        1.500094
  H         5.012290       12.206971        0.114509
  O         10.190479        8.446247        1.563131
  H         9.299474        8.691682        1.313928
  H        10.691683        9.258554        1.491118
  O          0.340177        2.541630        0.252646
  H        -0.360606        2.277556        0.848801
  H         0.102587        3.428370       -0.018416
  O         12.915259        5.260533        8.187426
  H        12.600949        5.623662        7.359429
  H        12.146350        5.263548        8.757514
  O          6.557811        3.561700        4.671703
  H         7.303007        3.088790        5.042205
  H         5.852915        2.914683        4.644831
  O          9.945645       11.902552        3.869945
  H        10.043429       12.687788        4.408530
  H         9.374199       12.174353        3.151749
  O         13.462146        8.987679        5.433987
  H        14.221266        9.047873        4.854034
  H        13.835808        8.949175        6.314399
  O         11.818700        4.465522       12.598145
  H        12.627582        4.963565       12.716023
  H        12.034914        3.582874       12.898839
  O         10.783685        1.440508       11.150242
  H        11.154983        0.579582       11.343048
  H        11.496819        1.919921       10.728538
  O          0.747757       13.394157        1.000353
  H         1.618815       13.162128        1.322304
  H         0.859012       14.262365        0.612965
  O          7.914911       12.995974        2.489169
  H         7.025459       13.175825        2.184603
  H         8.347452       13.849848        2.482950
  O         10.393183        6.356607       13.595080
  H        11.057995        7.032527       13.726946
  H        10.887444        5.585581       13.316769
  O          2.867015        1.368752        5.491276
  H         2.275874        0.753701        5.925438
  H         2.309803        1.839597        4.871558
  O          7.627587       10.796803        4.526614
  H         6.942566       11.183959        3.981556
  H         8.366738       11.399687        4.446507
  O         10.831836        2.476725        8.326210
  H        10.580215        2.894427        9.149887
  H        11.438771        3.095231        7.919625
  O          7.763312        2.080708        6.905306
  H         8.385964        1.868461        7.600637
  H         7.009685        1.516455        7.078211
  O         13.566872       13.235206        3.114044
  H        14.428530       13.045713        2.742737
  H        13.593019       12.848768        3.989381
  O         13.143401        2.477684       10.716458
  H        13.779794        3.013856       10.243430
  H        13.674602        1.838236       11.190972
  O          4.799834        6.106576        0.234977
  H         4.908019        5.454719        0.927516
  H         5.679739        6.456944        0.096265
  O          9.464449        2.896643       12.988526
  H         9.928272        2.366722       12.340233
  H         9.848404        3.769331       12.903522
  O         12.480880        2.332199        5.420718
  H        11.928939        2.887222        4.869772
  H        13.215782        2.894054        5.666623
  O         10.441027        8.795086       11.250432
  H        10.254664        8.064583       11.840234
  H         9.580319        9.153345       11.033488
  O          2.364652        6.466024       13.044006
  H         2.333296        7.226810       12.463960
  H         3.219656        6.524939       13.470304
  O         12.352036       13.265961       12.908739
  H        13.254891       13.488746       12.681910
  H        12.133260       13.857016       13.629172
  O          5.201914        1.384974        4.058324
  H         4.362509        1.516375        4.499191
  H         5.737344        0.915225        4.697762
  O         14.031558        9.276271        8.212271
  H        13.122454        8.992732        8.309054
  H        14.034795       10.181075        8.524600
  O         11.124412       11.115147        0.799410
  H        11.147281       11.386393        1.717088
  H        11.192500       11.932691        0.306238
  O          7.823098        9.793489       14.075009
  H         7.012208       10.287436       14.196277
  H         8.288573       10.263372       13.383075
  O          4.226847        5.675871       10.760876
  H         3.599897        5.822228       11.469215
  H         4.999317        5.314552       11.195582
  O         13.996904       11.911506        9.239012
  H        14.331612       12.256598       10.066729
  H        14.702486       12.068101        8.611425
  O          4.232561       10.746367        9.532650
  H         4.133044       10.847567        8.586031
  H         4.988348       11.290619        9.753569
  O          2.291591        5.876639        6.595858
  H         3.098726        5.516443        6.963314
  H         2.553593        6.235176        5.747897
