334
 
C   10.000   9.041   2.210
H   8.983   8.834   2.565
H   10.122   10.130   2.170
H   10.016   8.766   1.148
S   11.489   8.328   3.005
S   11.176   9.029   4.924
H   10.346   8.021   5.257
O   9.229   4.321   10.550
H   9.958   4.940   10.506
H   9.129   4.134   11.483
O   15.540   2.698   3.454
H   15.438   1.808   3.116
H   16.174   3.107   2.865
O   3.568   5.306   0.587
H   2.722   5.491   0.179
H   4.206   5.445   -0.112
O   14.754   9.283   1.674
H   14.339   9.795   2.368
H   14.162   9.367   0.927
O   3.752   -0.073   9.466
H   3.694   0.590   8.778
H   4.404   0.272   10.077
O   1.756   3.103   1.582
H   2.361   3.446   0.925
H   2.072   2.217   1.759
O   1.416   9.840   8.737
H   1.435   10.180   7.842
H   1.821   8.975   8.672
O   0.160   0.744   8.775
H   -0.662   0.256   8.725
H   0.540   0.663   7.901
O   11.641   6.218   10.664
H   12.114   6.775   11.282
H   12.205   6.185   9.892
O   4.530   12.929   4.685
H   4.268   12.111   5.108
H   4.307   13.610   5.320
O   13.385   2.374   1.041
H   12.753   2.856   0.508
H   13.816   3.046   1.569
O   1.533   5.784   13.327
H   0.932   6.321   13.842
H   1.827   6.361   12.622
O   6.657   1.553   0.037
H   6.692   1.932   0.915
H   5.865   1.923   -0.352
O   7.806   7.506   8.894
H   8.566   8.046   8.674
H   7.971   6.671   8.455
O   7.642   13.140   7.827
H   8.171   12.493   7.360
H   6.985   12.622   8.292
O   0.608   1.087   14.092
H   1.309   0.478   13.860
H   -0.190   0.560   14.054
O   6.284   13.714   12.615
H   5.984   12.924   13.064
H   6.525   14.314   13.321
O   6.559   10.933   4.082
H   6.002   11.643   4.401
H   7.443   11.182   4.353
O   5.722   9.476   2.040
H   5.945   10.086   2.743
H   6.020   8.624   2.358
O   7.524   0.855   2.906
H   8.405   1.133   2.655
H   6.965   1.598   2.677
O   12.263   4.143   12.813
H   11.909   4.880   13.311
H   12.569   4.531   11.994
O   12.565   6.211   7.886
H   12.481   7.143   7.685
H   13.507   6.072   7.987
O   3.188   0.640   1.753
H   4.143   0.674   1.811
H   3.011   -0.064   1.129
O   11.540   6.150   0.147
H   11.438   7.087   -0.017
H   10.647   5.829   0.271
O   1.413   14.056   10.747
H   1.016   14.785   10.269
H   2.352   14.241   10.729
O   6.567   5.408   0.821
H   6.438   6.069   1.502
H   7.336   4.916   1.108
O   -0.278   12.109   11.718
H   0.326   11.437   12.034
H   0.260   12.897   11.640
O   9.591   9.394   7.959
H   9.765   10.238   7.544
H   10.458   9.024   8.122
O   15.280   5.845   8.407
H   14.919   5.033   8.764
H   15.346   5.685   7.466
O   14.304   7.984   4.898
H   14.969   7.752   4.249
H   13.527   7.494   4.630
O   0.117   12.026   4.849
H   0.037   12.491   5.682
H   0.472   12.678   4.244
O   6.502   6.767   3.085
H   6.661   7.238   3.903
H   6.146   5.922   3.361
O   4.019   10.759   6.522
H   4.686   10.421   7.120
H   3.621   11.489   6.995
O   13.205   5.109   3.874
H   13.113   4.156   3.883
H   13.676   5.297   3.063
O   11.523   1.400   12.599
H   12.405   1.138   12.862
H   11.587   2.344   12.455
O   3.740   9.475   13.039
H   3.903   10.196   12.431
H   4.139   8.713   12.618
O   14.572   2.545   11.373
H   14.532   2.522   10.417
H   14.798   3.452   11.582
O   14.026   10.135   6.764
H   13.072   10.083   6.712
H   14.336   9.447   6.174
O   11.738   0.034   0.879
H   11.525   0.048   -0.054
H   12.484   0.628   0.964
O   8.932   1.010   5.664
H   8.477   1.850   5.604
H   8.315   0.436   6.117
O   8.666   5.866   13.083
H   8.759   4.921   13.203
H   8.048   6.134   13.764
O   5.394   7.138   7.426
H   6.071   7.390   6.798
H   5.592   7.650   8.210
O   10.889   13.781   5.499
H   10.367   14.566   5.332
H   11.573   13.802   4.830
O   15.509   9.602   10.435
H   16.261   9.635   9.844
H   15.374   10.511   10.703
O   13.575   -0.068   7.450
H   12.897   -0.334   8.071
H   13.105   0.435   6.785
O   6.919   6.078   11.041
H   7.215   6.082   10.131
H   7.726   6.090   11.556
O   7.425   3.275   6.146
H   7.786   3.918   6.756
H   6.788   3.768   5.628
O   9.123   12.905   2.028
H   8.731   13.654   1.579
H   9.155   12.217   1.363
O   13.185   13.066   11.568
H   13.972   12.535   11.445
H   13.447   13.741   12.193
O   15.482   5.361   5.813
H   14.677   5.346   5.296
H   16.010   6.053   5.415
O   8.774   4.165   1.737
H   8.955   4.651   2.541
H   9.318   3.380   1.803
O   14.613   2.799   8.442
H   14.002   2.357   7.852
H   15.260   2.129   8.662
O   14.192   0.387   13.429
H   14.155   0.979   14.180
H   14.569   0.915   12.725
O   13.705   7.827   11.611
H   14.214   8.327   10.973
H   13.518   8.452   12.311
O   5.427   13.493   2.207
H   5.012   13.214   3.023
H   6.252   13.894   2.482
O   15.456   12.982   7.284
H   15.085   12.108   7.160
H   14.705   13.572   7.224
O   7.292   0.957   8.730
H   7.243   0.066   8.384
H   6.676   0.964   9.463
O   1.556   2.798   9.927
H   1.165   2.041   9.492
H   1.482   2.602   10.861
O   5.778   12.300   9.839
H   5.867   12.959   10.528
H   4.842   12.285   9.642
O   2.545   7.737   7.503
H   2.203   7.049   6.932
H   3.486   7.566   7.545
O   2.740   5.211   3.151
H   3.306   5.601   2.484
H   2.217   4.566   2.674
O   11.731   14.348   9.413
H   11.170   15.010   9.818
H   12.128   13.886   10.152
O   0.517   7.272   0.950
H   1.317   7.481   1.432
H   -0.023   8.058   1.032
O   2.383   12.598   7.576
H   2.644   13.480   7.310
H   1.445   12.670   7.756
O   2.543   11.382   10.859
H   2.359   10.919   10.042
H   2.175   12.256   10.728
O   2.488   1.262   7.046
H   3.200   1.796   7.398
H   2.006   1.854   6.470
O   12.680   13.963   3.513
H   12.123   14.123   2.751
H   13.518   14.366   3.286
O   10.104   2.010   9.306
H   10.055   2.836   9.788
H   9.195   1.807   9.086
O   10.296   12.235   7.758
H   10.718   12.826   7.134
H   10.376   12.681   8.601
O   2.872   5.125   10.213
H   2.144   5.732   10.079
H   2.469   4.257   10.178
O   13.296   11.305   3.093
H   13.155   12.243   3.225
H   12.966   10.899   3.895
O   8.555   5.058   7.903
H   8.725   4.661   8.758
H   9.381   4.964   7.428
O   2.194   10.320   4.466
H   1.346   10.674   4.733
H   2.742   10.397   5.246
O   10.134   8.045   12.843
H   9.647   8.608   12.241
H   9.731   7.182   12.742
O   5.367   2.848   2.657
H   5.171   3.023   3.578
H   5.267   3.697   2.226
O   5.743   0.865   10.913
H   6.102   0.158   11.449
H   5.616   1.590   11.526
O   12.366   9.148   9.038
H   13.219   9.484   8.762
H   12.083   9.750   9.726
O   11.671   10.805   10.945
H   12.132   10.336   11.641
H   12.130   11.642   10.875
O   5.881   9.691   8.942
H   5.793   10.566   9.320
H   6.637   9.312   9.389
O   9.630   1.639   1.310
H   8.947   1.273   0.748
H   10.308   0.963   1.334
O   4.390   4.639   8.136
H   4.761   5.514   8.023
H   3.830   4.714   8.908
O   8.953   14.839   13.339
H   9.607   15.181   12.728
H   8.825   13.930   13.067
O   4.435   5.462   12.344
H   5.352   5.612   12.114
H   4.025   5.187   11.524
O   1.575   10.935   14.251
H   2.199   10.650   13.583
H   1.600   10.243   14.912
O   1.164   6.968   4.756
H   1.696   6.291   4.338
H   1.575   7.792   4.492
O   0.649   3.048   5.745
H   0.588   3.990   5.908
H   -0.026   2.875   5.089
O   15.022   14.526   2.343
H   15.134   13.780   1.754
H   15.692   14.405   3.015
O   1.823   2.905   12.543
H   1.571   3.801   12.766
H   1.235   2.355   13.061
O   8.552   11.942   12.934
H   7.645   11.702   13.122
H   8.853   11.276   12.316
O   5.010   2.017   7.447
H   4.971   2.966   7.569
H   5.943   1.809   7.483
O   10.410   5.317   3.721
H   11.190   5.785   3.422
H   10.573   5.146   4.648
O   1.122   -0.112   3.907
H   1.412   0.483   4.599
H   1.727   0.051   3.183
O   12.658   9.674   13.389
H   11.932   9.050   13.354
H   12.274   10.468   13.760
O   2.474   9.281   1.907
H   2.328   9.627   2.788
H   3.410   9.085   1.879
O   9.019   11.971   4.707
H   9.702   12.335   5.271
H   9.016   12.539   3.937
O   8.950   3.081   12.877
H   8.175   2.572   12.640
H   9.374   2.566   13.563
O   4.616   2.859   13.156
H   4.775   3.803   13.163
H   3.735   2.767   12.792
O   7.082   8.467   5.506
H   7.043   9.199   4.891
H   7.985   8.471   5.825
O   11.417   1.968   6.480
H   10.814   1.761   5.766
H   10.888   1.882   7.273
O   0.741   6.790   10.426
H   0.631   7.737   10.347
H   0.101   6.423   9.816
O   14.827   5.255   11.556
H   15.724   5.589   11.560
H   14.280   6.035   11.642
O   5.373   11.803   -0.096
H   5.569   12.259   0.723
H   4.912   11.010   0.176
O   9.167   9.803   10.935
H   8.939   10.072   10.045
H   9.987   10.260   11.121
O   10.803   4.806   6.365
H   11.371   4.086   6.090
H   11.331   5.303   6.990
O   14.532   5.523   1.423
H   15.411   5.886   1.317
H   14.061   5.803   0.639
O   5.339   4.703   5.099
H   5.362   5.565   5.514
H   4.497   4.332   5.363
O   15.464   12.621   0.555
H   14.834   12.395   -0.128
H   16.289   12.238   0.257
O   12.164   11.726   0.778
H   12.668   11.453   1.544
H   12.214   12.682   0.787
O   2.566   13.768   13.946
H   2.293   12.883   14.186
H   3.232   13.638   13.271
