343
 generated by VMD
  C          1.301367       -0.441498       -0.674003
  H          2.241343       -0.714100       -0.178476
  H          1.472683        0.469838       -1.260114
  H          0.843793       -1.244662       -1.264735
  S          0.046947       -0.049632        0.535640
  O         -1.276943        0.437119       -0.361705
  H         -1.287439        1.389404       -0.561136
  O         -1.173323        2.405195       -3.103643
  H         -1.327405        1.940825       -3.926353
  H         -0.239669        2.615665       -3.118636
  O         -4.933294        6.624562        4.831125
  H         -5.382152        5.967141        5.362683
  H         -4.833442        7.376827        5.414528
  O         -4.838131       -6.517149       -4.428074
  H         -4.014239       -7.003754       -4.453535
  H         -4.749648       -5.935704       -3.672876
  O          3.589321       -1.627290        6.955797
  H          4.460037       -1.779346        7.323171
  H          3.309266       -2.486375        6.639927
  O          2.191154        2.319818        0.768282
  H          2.839924        1.896509        0.206020
  H          1.725368        1.594583        1.184585
  O          4.549742        7.083479       -6.671241
  H          5.449271        6.820887       -6.866495
  H          4.033981        6.727917       -7.394979
  O         -3.379691        5.652625       -7.336900
  H         -3.767720        6.448291       -7.701016
  H         -3.601528        4.967659       -7.967646
  O         -1.979303       -4.598690       -6.618828
  H         -2.175148       -4.301760       -5.730172
  H         -1.415168       -5.362376       -6.497315
  O          5.362755       -5.838902        2.540306
  H          4.752567       -5.148011        2.798321
  H          6.229473       -5.458105        2.681814
  O         -6.929366       -2.556882       -5.664323
  H         -6.649734       -3.243355       -6.269958
  H         -7.040256       -1.782025       -6.215261
  O          6.710240        4.293475       -1.898849
  H          7.182928        4.701528       -1.173390
  H          7.186670        4.570889       -2.681337
  O          4.714364        2.788106       -4.906406
  H          3.896920        3.269876       -5.032564
  H          4.962125        2.970007       -3.999897
  O         -4.586764       -6.916219        6.707041
  H         -5.308697       -6.360618        7.000897
  H         -3.950409       -6.305392        6.335325
  O          6.284378       -2.358244        5.334429
  H          5.694706       -2.501575        4.594176
  H          6.425095       -3.231177        5.701062
  O          0.818022       -3.649028       -2.575946
  H          1.738742       -3.410455       -2.468295
  H          0.577716       -4.057786       -1.744441
  O         -6.423171        4.783489        6.160904
  H         -6.724438        4.506433        5.295624
  H         -6.054070        3.991160        6.551047
  O          6.633424       -4.826184        6.433650
  H          7.063573       -5.266186        7.166863
  H          6.406732       -5.533291        5.829627
  O          1.545286        1.570922       -3.886277
  H          1.649213        2.414628       -4.326268
  H          1.643285        0.923172       -4.584166
  O         -6.582237        7.307866        2.689926
  H         -6.608929        8.247179        2.507693
  H         -5.904905        7.212959        3.359587
  O         -6.463797        1.426086       -5.693866
  H         -5.850716        1.509367       -6.424228
  H         -6.821419        2.306607       -5.579759
  O          6.905400       -0.253493        7.294988
  H          6.791116       -0.952228        6.650828
  H          7.128264        0.518169        6.774315
  O          0.985141        1.576274        3.554054
  H          0.586735        0.742780        3.303471
  H          1.397362        1.400035        4.399776
  O          2.374130        3.885276        3.320041
  H          1.893891        3.197643        3.781305
  H          2.616346        3.488299        2.483398
  O          5.849268       -5.186037       -4.719762
  H          5.326881       -4.794231       -5.419641
  H          6.560496       -5.636516       -5.175234
  O         -0.250873        6.320733        2.007345
  H         -0.620120        6.912461        1.351795
  H          0.459571        5.870450        1.550457
  O          3.665867        0.149182       -2.909407
  H          4.103755       -0.035462       -3.740305
  H          3.003182        0.804289       -3.128306
  O          5.246124        2.642958        3.803341
  H          5.431662        3.054142        2.959104
  H          4.317771        2.818817        3.956529
  O         -0.950847        3.362079        5.664592
  H         -0.560903        2.759069        6.297487
  H         -0.270580        4.016782        5.507009
  O          0.675431       -7.150365       -3.226609
  H          1.028527       -7.197224       -2.338150
  H          1.442383       -7.010929       -3.782104
  O          3.557488       -5.087687       -1.042441
  H          4.146940       -5.797911       -1.296134
  H          3.804392       -4.357325       -1.609751
  O          5.550104        5.794581        3.428674
  H          5.441599        5.228137        2.664737
  H          6.297117        6.351576        3.209677
  O         -0.887681        7.626546       -0.396049
  H         -1.291308        8.179852       -1.064757
  H          0.053414        7.720501       -0.543505
  O         -3.639315        3.329519        2.563350
  H         -3.738081        2.779682        3.340626
  H         -2.707858        3.276574        2.349301
  O          7.184812        6.306631       -6.761093
  H          7.579213        5.833428       -7.493731
  H          7.293348        5.721196       -6.011614
  O         -2.324893        0.229849        2.727735
  H         -2.278183        0.741162        1.919893
  H         -2.001040       -0.636676        2.481799
  O          1.624402        5.028648        0.263602
  H          1.693350        4.090810        0.442308
  H          2.443764        5.248903       -0.179531
  O          1.623466       -0.487107       -6.035003
  H          1.136997       -1.193391       -5.609864
  H          2.442841       -0.895265       -6.314759
  O          3.456130       -0.014143        2.776059
  H          2.949480       -0.823867        2.838386
  H          3.205770        0.485463        3.553199
  O          4.645210        0.281545       -5.434566
  H          4.720074        1.233902       -5.374197
  H          5.204855        0.043681       -6.173788
  O          1.492758        4.300296       -4.915998
  H          0.718651        4.540226       -4.406661
  H          1.578225        4.998543       -5.565135
  O          7.256793        1.634795        5.218429
  H          6.428061        1.429675        4.785576
  H          7.759078        2.113930        4.559360
  O         -3.088502        1.462192        5.351196
  H         -2.933653        0.999124        4.527897
  H         -2.430629        2.157398        5.362374
  O          0.513650        7.509442        5.677520
  H         -0.341049        7.279034        5.313331
  H          1.119282        7.421155        4.941553
  O          1.354396       -4.487024       -7.192366
  H          0.725291       -5.201858       -7.289684
  H          1.022264       -3.974333       -6.455434
  O         -6.849741       -6.205838       -6.452181
  H         -6.108325       -6.340000       -5.861811
  H         -7.131042       -7.089823       -6.688130
  O         -7.306775        1.294196       -0.072166
  H         -7.227899        0.377809        0.192875
  H         -6.423976        1.540506       -0.348263
  O         -6.242388       -1.383151        4.399817
  H         -5.982539       -0.506841        4.684057
  H         -7.090345       -1.529341        4.819137
  O         -1.381766       -4.361519       -0.366132
  H         -1.853575       -3.541881       -0.513854
  H         -1.856874       -5.008661       -0.887392
  O         -4.902502       -3.971330        4.026715
  H         -5.206261       -3.099970        3.772364
  H         -4.940039       -3.968331        4.983174
  O         -1.840316       -2.889622        2.980905
  H         -1.360883       -3.484080        3.557962
  H         -2.761246       -3.038793        3.195075
  O         -3.178530       -6.072820        1.361213
  H         -2.548294       -5.921634        0.656814
  H         -3.911981       -5.493444        1.154805
  O         -2.352357       -6.561875       -2.156750
  H         -3.065349       -5.976826       -2.412858
  H         -2.086751       -6.987013       -2.972190
  O         -4.581985        4.928859       -0.443201
  H         -4.117539        4.794890       -1.269382
  H         -4.018856        5.521430        0.054774
  O         -2.079639       -3.949203       -3.891730
  H         -2.604842       -3.168124       -3.717632
  H         -1.472700       -3.999214       -3.153247
  O          1.511606       -6.401917        2.439116
  H          0.975964       -7.182666        2.579654
  H          2.334970       -6.737046        2.084162
  O          2.935897        0.770647        5.512352
  H          3.292101       -0.060392        5.826556
  H          3.501897        1.436668        5.902598
  O         -2.181821        6.801461        4.415164
  H         -1.894882        6.455701        3.569972
  H         -3.104331        6.553165        4.474803
  O         -2.802379       -6.071293        4.534328
  H         -2.517152       -6.969382        4.366062
  H         -3.103293       -5.752181        3.683534
  O          3.697422        7.590589        1.860811
  H          4.007185        7.393662        0.976786
  H          4.314528        8.243615        2.190914
  O          5.867443       -7.178718        5.342785
  H          5.458861       -7.636248        6.077604
  H          5.662954       -7.719843        4.580159
  O          6.433662       -2.751757       -3.018385
  H          6.799492       -1.870280       -3.091866
  H          6.681141       -3.182748       -3.836452
  O          1.753347        3.690155        7.224618
  H          1.763362        4.541038        7.662944
  H          2.647888        3.575404        6.903900
  O          0.518377       -2.856258       -5.064730
  H          0.680360       -3.261991       -4.213041
  H         -0.429369       -2.724654       -5.090968
  O         -2.667980       -1.629867       -5.574280
  H         -3.424875       -1.242617       -5.134532
  H         -2.811908       -1.448515       -6.503057
  O         -4.473489       -0.067096       -4.629170
  H         -4.122254        0.555842       -3.992920
  H         -5.207353        0.393823       -5.035656
  O          5.367479       -7.264786       -2.351453
  H          6.279130       -7.467473       -2.561316
  H          5.123132       -6.583798       -2.978176
  O          4.138862        3.952228       -1.964612
  H          5.077274        4.093197       -2.090076
  H          4.079302        3.440248       -1.158038
  O         -6.466242       -5.589319        2.301267
  H         -5.823955       -5.161119        2.867256
  H         -6.329287       -5.192873        1.440857
  O          2.284964       -3.673861        5.214715
  H          1.934497       -4.070065        6.012478
  H          1.583795       -3.772039        4.570544
  O          4.396025        3.470547        6.304755
  H          4.364369        4.425991        6.353303
  H          5.115479        3.285098        5.701242
  O         -4.701993       -3.899369        6.985174
  H         -3.867194       -4.140456        7.386697
  H         -4.544180       -3.035217        6.604954
  O          1.790683       -7.419313       -0.719602
  H          2.242309       -6.591012       -0.881411
  H          2.492228       -8.040320       -0.523601
  O          0.001580        1.601975       -7.279394
  H          0.474800        2.430629       -7.354400
  H          0.658607        0.978034       -6.970776
  O         -1.564571        7.134830       -4.266242
  H         -1.322295        6.288458       -4.641992
  H         -0.731053        7.532734       -4.014940
  O          3.626018       -3.016455       -2.871684
  H          3.150973       -2.210962       -3.076001
  H          4.540254       -2.811642       -3.067786
  O         -3.670953        1.246066       -2.560647
  H         -4.158562        1.352248       -1.743827
  H         -2.919452        1.831772       -2.468845
  O         -1.032860       -4.261752        5.726843
  H         -1.393192       -4.109094        6.600392
  H         -1.606584       -4.925281        5.343695
  O          5.790792        3.480048        1.169083
  H          6.128648        4.228481        0.677216
  H          6.065638        2.716272        0.661799
  O          0.532429       -1.255764        3.736892
  H         -0.185234       -1.809376        3.429149
  H          0.244985       -0.946567        4.595963
  O          5.367804       -1.457904        1.029619
  H          4.826033       -0.806156        1.474524
  H          4.822641       -2.244215        1.002340
  O         -1.553596        4.599547       -5.821307
  H         -1.843138        3.690772       -5.740527
  H         -2.259284        5.034084       -6.300278
  O         -6.804843       -0.725515        1.740432
  H         -6.606513       -1.234639        2.526364
  H         -7.735820       -0.882033        1.582267
  O         -4.784347       -2.572589       -3.664173
  H         -5.098659       -2.878649       -4.514918
  H         -4.895894       -1.622420       -3.695307
  O         -4.496601       -4.859959       -2.020194
  H         -4.473540       -4.077620       -2.571234
  H         -4.652416       -4.526139       -1.136724
  O          1.974881        6.463699        3.621388
  H          2.131099        5.546213        3.397676
  H          2.569718        6.953358        3.053379
  O          3.863039       -4.809621       -6.661932
  H          2.961579       -4.604398       -6.909893
  H          4.283261       -5.070900       -7.481308
  O          1.069808       -4.335971        0.712397
  H          0.279476       -4.589895        0.235815
  H          1.279234       -5.098161        1.252247
  O         -5.009592       -3.648172        0.454633
  H         -4.611760       -2.869521        0.844075
  H         -5.925338       -3.405894        0.317007
  O         -6.287190       -7.681767       -2.027096
  H         -5.449264       -7.282234       -2.260514
  H         -6.167111       -7.980856       -1.125786
  O         -0.804412       -7.111576       -6.741642
  H         -1.035545       -7.715090       -6.035541
  H         -0.558595       -7.679879       -7.471599
  O         -0.010711        4.920607       -1.910048
  H         -0.337216        5.666383       -1.406616
  H          0.643102        4.515034       -1.340601
  O          3.835896        6.055710        5.628561
  H          2.986796        6.105841        5.189530
  H          4.472609        6.016835        4.914897
  O         -6.394511        5.446134       -3.742501
  H         -6.421739        6.263769       -3.245546
  H         -5.463092        5.234294       -3.804262
  O         -4.932753        2.536288        7.360289
  H         -4.149989        2.589403        7.908643
  H         -4.619606        2.177552        6.529940
  O          3.467301       -3.353997        1.145005
  H          3.698781       -3.875417        0.376390
  H          2.528797       -3.191308        1.050272
  O          7.129454       -3.091980       -0.301646
  H          6.847878       -3.225638       -1.206678
  H          6.556567       -2.399443        0.027633
  O         -7.360231       -0.346871       -3.345572
  H         -7.070280        0.435806       -2.876981
  H         -7.215253       -0.140649       -4.268982
  O          4.572614        1.294254       -0.513665
  H          4.318106        0.705602       -1.224261
  H          5.515541        1.160335       -0.417817
  O         -3.185731        6.566586        0.998528
  H         -3.308997        7.494085        1.200474
  H         -2.340559        6.529228        0.550733
  O         -0.922866        3.252401        1.980811
  H         -0.627960        4.160146        2.053350
  H         -0.241220        2.743334        2.419492
  O         -7.035889        5.600960        0.357594
  H         -6.769915        6.372347        0.858046
  H         -6.228088        5.290674       -0.051565
  O         -3.074432       -1.183391        6.646438
  H         -3.214282       -0.293929        6.321582
  H         -2.130002       -1.320019        6.571503
  O         -2.495990        1.868962       -5.848887
  H         -1.680925        1.526108       -6.215428
  H         -3.060676        1.101100       -5.760849
  O         -4.672825        2.314080       -0.356248
  H         -4.369825        2.362771        0.550423
  H         -4.850734        3.222878       -0.598458
  O         -2.905254       -2.262975       -1.431333
  H         -3.512879       -1.907330       -2.079823
  H         -2.511780       -1.491591       -1.023440
  O          4.085565        6.506605       -0.669897
  H          4.636465        7.103679       -1.176102
  H          4.000866        5.730840       -1.224195
  O         -0.142533       -1.356492        6.738673
  H          0.529289       -0.924703        7.266352
  H          0.200844       -2.237123        6.587631
  O          4.432187       -3.424716        3.578015
  H          3.909390       -3.401096        2.776543
  H          3.791768       -3.551229        4.278079
  O          3.064614       -7.024886       -4.954000
  H          3.326568       -6.254419       -5.457977
  H          3.614861       -7.731092       -5.292722
  O          1.480798        6.454496       -6.909461
  H          1.317502        7.236316       -6.381898
  H          1.392026        6.753394       -7.814454
  O         -6.465729        3.444396        3.241488
  H         -5.664865        3.697412        2.782324
  H         -7.126302        3.377853        2.551962
  O         -3.611546        4.924946       -2.942115
  H         -3.235450        4.112348       -3.280447
  H         -3.128727        5.618024       -3.392403