474
SEO-dyn1.pdb
SE        -0.76100        0.46500       13.30300
C          0.34900        1.69100       14.21900
O          0.38200       -0.93100       13.16200
H          1.27600        1.83100       13.65000
H          0.53400        1.24200       15.20300
H         -0.25000        2.59500       14.38400
O         10.08600        1.51100        5.77700
H          9.59900        1.38500        4.96300
H         11.00500        1.42200        5.52300
O          5.90400        7.66700        5.46000
H          6.55100        7.92600        6.11600
H          5.71000        6.75200        5.66400
O          8.65300       10.83400       15.15300
H          8.16900       10.09900       15.52900
H          9.07500       10.47100       14.37500
O          5.11000        0.70500        3.76800
H          5.61900        1.29000        4.32800
H          4.40900        0.38100        4.33400
O          0.79400       13.17300       12.24900
H          0.06300       12.95000       11.67300
H          0.54500       14.01000       12.64100
O          0.15100        6.89800        8.45300
H          0.85400        6.25100        8.49900
H          0.25500        7.30500        7.59300
O          0.75500        8.81500       10.39600
H          0.32700        8.22700        9.77400
H          1.68800        8.74100       10.19400
O         12.97000        0.81700       12.78500
H         13.68400        0.66200       13.40300
H         12.98000        1.76300       12.63900
O          2.44200        5.89100       15.02600
H          2.37900        6.07700       15.96300
H          2.11600        6.68400       14.60200
O          9.11800        3.82800        3.63700
H          8.28900        4.27200        3.45800
H          8.90100        2.89600        3.61600
O          5.12800        4.11800       11.00600
H          4.92200        3.18800       11.09900
H          5.68300        4.16400       10.22800
O          1.52800        4.29900        6.36800
H          2.22100        4.26100        5.70900
H          0.73900        4.52200        5.87200
O          3.35200        0.39500        5.74700
H          2.56100        0.93000        5.68900
H          3.74900        0.64400        6.58200
O          1.47500        0.36900       10.91600
H          1.05600        0.12500       11.74100
H          1.45800       -0.43300       10.39300
O         13.60700       10.06500        2.38800
H         12.87000        9.76100        2.91800
H         13.41700        9.74300        1.50700
O          7.55400       14.30900        2.47900
H          7.55200       13.71100        1.73200
H          8.06500       13.85400        3.14900
O          3.95400       13.12300       10.86900
H          3.45700       12.72900       10.15100
H          3.29900       13.59900       11.38000
O         -0.15900       11.61100        0.46300
H         -0.52500       11.52100       -0.41600
H          0.75700       11.84900        0.31800
O          2.20900        6.60400        1.32400
H          1.45800        7.19500        1.36800
H          2.87200        7.01800        1.87700
O         16.76700        5.24600       14.64800
H         17.46800        4.60000       14.73200
H         15.96500        4.75500       14.82600
O          1.28600        3.63000        1.16600
H          1.52500        4.45200        1.59300
H          1.39400        2.96600        1.84700
O         10.04500        1.26300       10.95100
H          9.65000        0.68200       11.60100
H         10.09200        2.11400       11.38900
O         14.21800        1.44200       16.03800
H         14.97800        0.88200       15.88200
H         14.59000        2.29900       16.24400
O          2.25100        9.13200        4.04400
H          1.84800        9.42400        3.22600
H          3.04700        8.67600        3.77000
O         13.86400       10.36700       15.64800
H         13.06200       10.39900       15.12700
H         14.53700       10.73200       15.07300
O         15.13300       15.74600        3.01700
H         15.95600       15.56400        3.47200
H         14.48200       15.22000        3.48000
O          4.41100       -0.14700       15.47300
H          3.89700        0.64300       15.64300
H          5.01800       -0.20100       16.21100
O          9.73500       14.22500       16.55000
H          9.53600       13.29500       16.43600
H          9.04700       14.67800       16.06300
O         14.78700       14.24500       13.30900
H         13.93400       14.50500       13.65700
H         15.39000       14.91900       13.62500
O          4.72800       10.84400       13.72300
H          3.83700       11.00500       13.41100
H          4.85200        9.90100       13.61700
O          2.28100       15.91500        1.52200
H          2.04100       15.49600        0.69500
H          3.22200       16.07000        1.44800
O          0.23800        8.10500       15.04400
H         -0.20400        7.25700       15.08100
H          0.20400        8.35300       14.12000
O          2.78500        5.08300        8.63900
H          2.37900        4.67900        7.87300
H          2.66700        4.44000        9.33900
O         10.85500       15.77300        2.38800
H         11.08100       16.68300        2.19700
H         10.57200       15.41500        1.54600
O          6.49000        5.09300        0.34100
H          6.22000        5.06100       -0.57700
H          6.33400        4.20700        0.66800
O          6.80100        9.37100        2.59100
H          6.17500        9.81400        2.01800
H          6.81600        9.90500        3.38600
O         12.08900       15.21100        7.08100
H         11.15400       15.12800        6.89100
H         12.12600       15.74700        7.87300
O          6.92600       16.19600        6.80300
H          7.29500       16.73700        6.10400
H          6.16500       16.68800        7.11000
O          1.90100       11.00300       13.30300
H          1.44900       10.34800       12.77200
H          1.62600       11.84300       12.93400
O          6.32100        8.18200       13.95600
H          6.97300        7.92900       14.61000
H          6.77000        8.07300       13.11700
O         16.16200       11.41200        5.98000
H         16.14200       11.23200        6.92000
H         17.09200       11.40500        5.75400
O         10.22000        5.58700       15.84400
H         10.62500        5.44500       16.70000
H          9.74000        4.77800       15.66900
O          8.04700       16.02600       14.88600
H          8.82300       16.41600       14.48400
H          7.66200       15.49000       14.19300
O         12.61900        1.86800        4.73200
H         13.38100        1.46900        5.15200
H         12.98500        2.55400        4.17400
O         11.81100       13.04900        9.50900
H         12.57200       13.33600        9.00500
H         11.55300       13.82000       10.01400
O         16.84500        9.16500       12.75600
H         17.18000        9.11100       11.86100
H         15.89500        9.09200       12.66100
O          7.15500        1.04000        0.60900
H          7.46000        0.59200       -0.18100
H          7.03100        0.33900        1.24900
O          8.13400       14.20300       12.33100
H          7.66300       13.37000       12.30500
H          9.01300       13.97200       12.63200
O         14.79400       13.11400        4.44700
H         14.93900       12.88300        3.53000
H         15.32500       12.48800        4.93900
O         12.58800        6.59400       15.34000
H         12.33500        6.88600       14.46400
H         11.81600        6.13500       15.67200
O          9.02300        9.04800        0.95200
H          8.30300        9.33400        1.51400
H          9.68400        8.71500        1.56000
O          6.50900       11.87600       11.84200
H          5.91400       12.51600       11.45000
H          6.02100       11.51800       12.58300
O          4.32000        1.16800       10.84700
H          5.09900        0.86900       11.31500
H          3.70000        0.44300       10.92600
O         12.50900        3.85000       12.78100
H         12.52100        4.13400       11.86700
H         11.62700        3.50400       12.91300
O          7.58800        4.05100       13.02600
H          7.08000        3.24400       13.11600
H          6.94800        4.75200       13.14400
O          0.54900       15.15300       15.81900
H          0.62200       15.47800       14.92200
H         -0.39100       15.15000       15.99700
O          6.59500        3.76200        8.55000
H          6.99900        2.89600        8.60600
H          7.24900        4.30300        8.10700
O          6.21300       16.19900       12.57400
H          6.76600       15.49300       12.24000
H          5.41400       15.75900       12.86500
O          4.50400        0.44900        8.27800
H          3.83500       -0.19400        8.51400
H          4.56400        1.02300        9.04200
O         10.44400        5.92300       10.30200
H         10.17500        6.04900        9.39200
H         11.33700        5.58100       10.24200
O          8.90400        3.20200       15.97100
H          8.43000        2.66700       15.33500
H          8.79700        2.73900       16.80200
O          0.99200        1.93000        7.75400
H          1.00400        1.87700        8.71000
H          1.10100        2.86200        7.56500
O          3.18300       13.92300        5.27900
H          3.51600       14.78700        5.52300
H          3.88100       13.31800        5.53000
O          4.38100        7.89200        3.10400
H          4.94900        7.80300        3.87000
H          4.98600        7.98100        2.36700
O          9.41000        7.94600       15.05300
H          9.61500        7.04100       15.28600
H          9.53100        8.43600       15.86600
O          6.08900       12.28900        3.98300
H          5.41100       12.56500        3.36700
H          5.66000       12.31700        4.83900
O          2.31800       14.88000        8.81800
H          1.40900       14.99400        8.54200
H          2.47300       13.93800        8.74800
O          9.99800       14.09200        4.53500
H         10.17600       14.81800        3.93700
H         10.86400       13.77600        4.79300
O          8.67400       11.83500        4.17900
H          7.80800       12.19300        4.37400
H          9.25700       12.59400        4.19900
O         13.45600       10.82000       10.96200
H         13.85200       10.01500       11.29500
H         12.74700       11.01000       11.57500
O         11.23800        4.54100        1.65900
H         11.60500        5.18200        2.26800
H         10.48100        4.17900        2.11900
O         10.32000        0.68500       13.95600
H         11.12800        0.39200       13.53300
H         10.61000        1.07600       14.78000
O          3.12600        2.75000       16.08000
H          3.14300        3.29200       15.29100
H          2.40700        3.10800       16.60100
O          2.10100       13.01900       16.13600
H          1.48300       13.72500       15.94900
H          2.55200       12.86800       15.30600
O         16.30200       11.29100        8.89300
H         17.21300       11.05500        9.06400
H         16.10600       11.97200        9.53600
O         14.99200        9.19900        4.60600
H         14.30800        9.66300        4.12500
H         15.66100        9.86300        4.77300
O          0.62000        7.61600        6.10200
H         -0.15200        7.57800        5.53800
H          1.24300        8.15900        5.61900
O          7.88900        8.38100        7.08300
H          8.31800        9.19000        6.80700
H          8.60700        7.81000        7.35700
O         14.83600       15.14400        6.35100
H         14.88700       14.42400        5.72200
H         13.93400       15.11800        6.67200
O          9.46300       15.73400        7.65100
H          8.57700       15.86600        7.98700
H          9.60800       16.47200        7.05900
O          2.24400       11.85800        8.72700
H          2.00700       11.85800        7.79900
H          2.96700       11.23400        8.79000
O         10.33500        6.61500        7.44500
H         11.09200        7.17600        7.27600
H         10.36800        5.95300        6.75500
O          0.47900        0.88200        5.37000
H          0.59300        1.30800        6.22000
H          0.35800       -0.04400        5.58000
O          1.40000       12.38800        2.96400
H          2.16800       12.95200        3.05600
H          1.19900       12.40900        2.02800
O         14.97500        5.83100        7.90100
H         15.84700        6.10600        8.18300
H         15.13800        5.20600        7.19400
O          4.01200        9.44300        7.66100
H          3.81900        8.83200        6.95000
H          4.42300        8.90400        8.33600
O          5.11700        6.70700       11.68900
H          5.08900        5.80000       11.38500
H          5.62800        7.16700       11.02400
O          5.22000        5.43300       14.29200
H          4.41800        5.73200       14.72000
H          5.22100        5.88000       13.44500
O         14.88600       12.38100        1.83700
H         14.24900       11.67500        1.93900
H         15.55700       12.01700        1.25900
O          1.80100        3.12200       10.67900
H          1.73300        3.50700       11.55300
H          2.02000        2.20400       10.83900
O          1.55600       11.08700        5.61400
H          1.78600       11.87300        5.11800
H          1.85900       10.36200        5.06800
O          6.04000        4.59400        3.42900
H          6.22500        5.48400        3.13000
H          5.55800        4.19300        2.70600
O         11.29400       10.04000        6.67800
H         12.17400        9.76100        6.93000
H         10.89600       10.34400        7.49400
O          2.90200        3.86400       13.11000
H          3.66100        4.17800       12.61900
H          2.65400        4.60200       13.66600
O         11.74600        7.34400       12.91800
H         11.79800        6.83100       12.11200
H         10.91500        7.81400       12.85000
O         12.93600        4.69400        9.97300
H         13.52300        5.40800        9.72400
H         13.44900        3.90000        9.82600
O          0.53100       14.84800        3.68300
H          0.95900       15.39200        3.02100
H          0.83700       13.96000        3.49800
O          1.93400        9.86200       15.84100
H          2.07900       10.06900       14.91800
H          1.38300        9.07900       15.82800
O         16.15100        6.77900        4.29700
H         15.87700        7.68000        4.12600
H         16.04200        6.33300        3.45700
O          5.21600        5.34800        6.77900
H          4.60600        5.21200        7.50400
H          5.98100        4.81900        7.00800
O          3.40400       15.37400       12.97800
H          3.77600       15.76900       13.76600
H          2.45700       15.42300       13.10900
O         11.11400       13.73500       13.34100
H         11.46700       14.30400       12.65700
H         11.68600       13.88300       14.09400
O          3.56500        3.49500        4.72000
H          3.42700        3.42600        3.77600
H          4.51700        3.52700        4.82200
O         15.37700        6.00300       12.41400
H         16.08100        5.87900       13.05000
H         15.53200        5.33100       11.75000
O          5.19100        7.60300        0.40200
H          5.32900        8.06100       -0.42700
H          5.48200        6.70800        0.23200
O          5.91300        2.11100       13.66800
H          6.35900        1.26400       13.66400
H          5.04200        1.92500       13.31900
O          7.16400        6.74900        2.56200
H          7.38700        6.28000        1.75800
H          6.96700        7.64000        2.27300
O          7.18200       12.63100       16.83200
H          6.29700       12.31000       16.65800
H          7.69200       12.35100       16.07200
O         12.13900       15.43600       11.29200
H         12.14200       15.79100       10.40300
H         12.44000       16.16100       11.84000
O          9.92600        9.64700       13.02600
H          9.40800        9.69300       12.22200
H          9.48600        8.98300       13.55600
O          6.79000        2.52000        5.43200
H          6.69800        3.30800        4.89700
H          7.46400        2.74400        6.07400
O         16.48000        4.29100       10.46900
H         15.99800        3.71100        9.87900
H         17.38400        3.98000       10.42600
O          4.37200       13.15900        1.95700
H          4.29900       12.43900        1.33000
H          4.54100       13.93100        1.41600
O          5.27800       15.75500        1.61100
H          5.08200       16.25900        2.40100
H          5.95800       15.13800        1.88300
O         10.87100        4.27900        5.85300
H         11.02300        3.33500        5.89300
H         10.27300        4.39400        5.11500
O          8.27000        6.52700       11.88400
H          8.90700        6.50900       11.17100
H          8.22000        5.62000       12.18500
O          3.22900        7.60300        9.70700
H          2.75200        6.83700        9.38800
H          4.12500        7.29100        9.83400
O          8.81200        6.63400        4.95100
H          9.06300        7.55500        5.02300
H          8.11900        6.62600        4.29000
O         14.30100        8.50200       11.81000
H         13.38000        8.32400       12.00100
H         14.72400        7.64500       11.85200
O         11.98300       12.10600        4.90100
H         12.86600       12.40800        5.11600
H         11.88000       11.29400        5.39800
O          5.03400       11.76500        6.68000
H          4.76700       12.11300        7.53100
H          4.83900       10.82900        6.73200
O         12.66900        6.11300        3.96300
H         13.11600        6.78100        4.48400
H         12.39600        5.45400        4.60200
O          0.34200        9.03000        1.67500
H         -0.53100        8.64100        1.62100
H          0.24900        9.88500        1.25400
O          5.12200        2.85500        1.41300
H          5.65300        2.09400        1.17800
H          4.44500        2.89100        0.73700
O         11.38800        1.17700       16.39800
H         11.25500        2.10200       16.60700
H         12.33900        1.06700       16.39400
O         14.36200        7.87400        0.33200
H         14.30400        8.71400       -0.12300
H         13.78200        7.29400       -0.16100
O          0.55300       14.27200        6.64900
H          0.90300       14.34500        5.76100
H         -0.39600       14.23100        6.53000
O         15.63300        5.92000        1.57800
H         15.28100        6.64400        1.06000
H         15.65100        5.17900        0.97200
O         15.73700        4.29700        5.60700
H         15.85000        5.14900        5.18500
H         15.09000        3.84600        5.06500
O          8.32700        4.71500        6.74800
H          8.57500        5.41500        6.14300
H          9.16000        4.33100        7.02300
O          8.32800        9.96400       10.80900
H          8.97400       10.25400       10.16600
H          7.65600       10.64600       10.79800
O          6.30900        7.85100        9.39300
H          6.94200        8.00300       10.09500
H          6.74700        8.16700        8.60300
O         11.03300        8.18500        2.84600
H         10.49400        8.56300        3.54000
H         11.39500        7.38700        3.23000
O         14.16700        3.83900        3.43900
H         14.72800        3.66000        2.68500
H         13.74700        4.67400        3.23300
O         15.34000       15.03000        0.45600
H         15.22400       14.10600        0.67600
H         15.28900       15.48500        1.29700
O         15.97300       11.65700       14.34800
H         16.59100       11.40100       13.66400
H         15.37800       12.27000       13.91700
O         12.31600        0.74300        8.86200
H         11.51400        1.11600        9.22700
H         12.93700        1.47100        8.85500
O         14.95700        1.37700        5.86700
H         15.13600        0.45700        6.06100
H         15.77800        1.71000        5.50500
O         14.03700       10.02100        8.11200
H         14.93400       10.30800        8.28400
H         13.59400       10.10500        8.95600
O         15.95700        0.81000       10.01200
H         15.41000        0.10100       10.35000
H         16.71900        0.82200       10.59100
O          2.54600        7.76800       12.68900
H          3.40700        7.58300       12.31400
H          1.94100        7.68800       11.95100
O          9.85900       11.12800        8.91700
H         10.56300       11.75000        9.09900
H          9.13400       11.67200        8.60700
O          9.55100        9.25700        4.84600
H          9.43200       10.14700        4.51500
H         10.17700        9.34900        5.56400
O          9.87100        3.64400       11.74000
H          9.02200        3.76700       12.16500
H          9.91200        4.33600       11.08000
O         13.06600        7.70400        7.33400
H         13.48700        8.50400        7.65100
H         13.68600        7.00700        7.54800
O          9.18600        2.43000        8.71800
H          9.41100        1.84400        9.44100
H          9.65700        2.07400        7.96500
O         12.17100       11.02300       13.81600
H         11.41100       10.45700       13.68400
H         11.80400       11.90500       13.88700
O          4.59800       10.79200       16.58400
H          3.71000       10.45200       16.69100
H          4.70200       10.89800       15.63800
O          8.22300       12.88700        7.45800
H          7.59100       12.69800        6.76500
H          8.51000       13.78300        7.28200
O         14.12000        4.19800       15.01700
H         13.82700        3.81200       14.19100
H         13.67800        5.04600       15.05500
O         15.54900       12.72400       11.15000
H         15.19300       13.24300       11.87100
H         14.91300       12.01900       11.02500
O         14.51700        2.55900        8.70200
H         15.24500        2.02900        9.02500
H         14.52400        2.42300        7.75400
O         15.98100        3.10700        1.27000
H         15.88700        2.22900        1.63900
H         16.92000        3.20200        1.11100
O         12.65400       14.93400       15.30800
H         13.18400       15.05800       16.09500
H         11.75500       14.87300       15.63200
O          0.97300        1.52800        2.71000
H          1.58000        0.86000        2.39200
H          0.96300        1.41000        3.66000
O          8.85800        1.29100        3.36300
H          7.97100        1.10900        3.05300
H          9.35200        0.49700        3.15500