425
MSE-dyn1.pdb
Se         8.60900       12.34700       11.81800
C         10.05800       13.61800       12.37900
H         10.46800       14.06300       11.46400
H         10.87600       13.11300       12.90700
H          9.68400       14.41500       13.03400
O          6.09600       10.48000       11.67900
H          6.35600        9.84400       11.01100
H          6.85500       11.05600       11.76900
O          4.40200       13.59700        5.68700
H          4.26000       12.65600        5.58600
H          4.97200       13.67300        6.45200
O          5.54600        5.47200        9.73300
H          4.74200        5.74100       10.17800
H          5.65500        4.55100        9.96900
O         14.14000       11.38800        2.68100
H         13.88200       12.28800        2.87900
H         14.76700       11.16300        3.36800
O         16.70500        7.54300       15.98900
H         16.09000        8.22900       16.24700
H         16.89500        7.72400       15.06900
O          9.70000        7.47200       13.53700
H         10.44000        7.03100       13.95400
H          9.77100        8.38200       13.82400
O         15.92800        0.97600        6.54200
H         15.17300        1.17500        7.09600
H         15.66100        0.20500        6.04100
O         11.97100        4.61700        1.90900
H         12.04400        3.71500        2.22100
H         12.21300        4.57000        0.98400
O         13.15500       10.49800       12.04900
H         13.49900       11.20500       12.59500
H         13.35100        9.70000       12.54000
O          4.64000       13.41100       15.33600
H          4.38100       14.30900       15.54300
H          5.34700       13.50600       14.69800
O         -0.12800        2.20300       14.71600
H          0.41600        1.81900       15.40400
H          0.45400        2.26700       13.95900
O          9.66300       10.48000        1.53100
H          9.02700       10.55700        2.24200
H         10.46500       10.18000        1.95900
O         14.22700       10.89800        9.17800
H         14.96200       11.36400        9.57700
H         13.45300       11.38400        9.46000
O         15.17000       10.92600       -0.32500
H         16.08900       10.79100       -0.09400
H         14.70800       10.91200        0.51400
O          6.30800       13.66000        3.38500
H          5.37500       13.81400        3.53500
H          6.34500       12.79800        2.96900
O         11.96000        9.64200        2.68600
H         12.76000       10.16700        2.67500
H         11.75100        9.54300        3.61500
O         16.03300        8.13100        9.28300
H         16.64600        8.38500        9.97300
H         15.17900        8.42600        9.60100
O         11.76000        6.12800       14.94100
H         12.59500        6.36000       14.53600
H         11.88200        5.22800       15.24200
O          0.16900       12.69000        9.69500
H          0.34800       13.48500        9.19300
H         -0.37500       12.98600       10.42500
O         10.06000        6.89500        2.91300
H         10.70500        7.51000        3.26200
H         10.58000        6.15400        2.60300
O         12.01700        2.28700        7.50000
H         12.71200        1.92600        8.05000
H         11.51700        2.85300        8.08800
O          4.52600        7.53100       13.54700
H          4.46500        8.14100       12.81200
H          4.96300        8.02900       14.23700
O         -0.06400        1.64100       10.44400
H          0.01600        2.56400       10.20500
H          0.50500        1.18300        9.82500
O         10.22100        5.56900        7.44900
H         10.38000        4.95200        8.16300
H          9.26700        5.61700        7.38200
O          7.56200        5.17700        7.55700
H          7.24600        4.36400        7.16300
H          6.89700        5.40100        8.20900
O          9.23900        8.46700        9.06500
H          9.61300        8.17700        8.23300
H          9.46200        9.39700        9.11700
O          1.58700       13.86700       13.75100
H          0.98200       13.80300       13.01200
H          1.47300       13.04300       14.22500
O          8.66600       10.41800        6.42300
H          7.99000        9.76300        6.59600
H          8.81500       10.83800        7.27000
O          9.79700        1.44900        5.60500
H         10.10000        1.51200        6.51100
H          9.16800        0.72800        5.61300
O          8.12200       14.47100        5.48200
H          7.68700       14.04000        4.74600
H          7.64600       14.16400        6.25400
O         12.22200        1.05300       14.46300
H         11.87100        1.29900       13.60700
H         12.85100        0.35600       14.27200
O         14.19300        6.21900        1.96300
H         13.62700        6.19700        2.73500
H         14.08100        5.35900        1.56000
O         16.56200        7.41800        2.92400
H         15.70800        6.99300        3.01300
H         16.95300        7.00800        2.15200
O          3.62100        0.62900        2.73600
H          2.91500        0.88800        3.32800
H          3.24800       -0.08300        2.21500
O          7.16600        3.33600       13.58900
H          6.98600        3.12300       14.50500
H          7.12100        4.29200       13.55300
O         15.76800       13.95200        5.40500
H         15.85000       12.99900        5.38800
H         15.01600       14.13900        4.84300
O          0.77200        1.18100        3.76500
H         -0.03100        0.77500        3.43800
H          0.81600        0.91900        4.68400
O         11.56200       14.69000        8.76500
H         11.92100       15.17200        9.51000
H         11.58600       13.77300        9.03900
O          3.84900        0.21400        9.42200
H          4.44700        0.71000        8.86200
H          3.89100        0.65900       10.26900
O         12.90800        5.58300        4.28500
H         13.35200        4.88300        4.76400
H         12.02300        5.24900        4.13900
O         14.14400       12.59500       14.01800
H         14.52900       12.09900       14.74100
H         13.47600       13.14100       14.43300
O         10.81500        3.88200        5.16500
H         10.77000        4.29900        6.02500
H         10.37900        3.03800        5.28500
O          2.29800        8.95800        8.40900
H          1.89600        9.82600        8.45000
H          1.75400        8.47200        7.78900
O         15.75700        5.04100        9.16500
H         15.93300        5.49400        9.99000
H         14.85700        5.28200        8.94700
O         10.89600        9.08300        5.41800
H         10.05700        9.54400        5.40300
H         11.10500        8.99700        6.34900
O         10.36400       10.16600       13.04800
H          9.75800       10.85900       12.78500
H         11.23200       10.55000       12.92800
O          1.76900       14.79200        5.75500
H          1.03500       14.18800        5.86100
H          2.45100       14.26800        5.33500
O          7.57500        6.25400        3.92700
H          8.48100        6.44500        3.68400
H          7.54900        5.30200        4.02700
O          6.79400        4.99200        1.61200
H          7.11200        5.51900        2.34500
H          5.84100        5.04500        1.67400
O          7.00100        8.86500        3.18000
H          7.14900        7.99800        3.55600
H          6.23400        8.75500        2.61800
O         10.61200       14.76800        2.07100
H          9.82100       14.28100        1.84200
H         10.69500       14.65900        3.01800
O          3.87800        3.53200       14.68300
H          4.23600        3.91200       13.88100
H          4.57900        2.97200       15.01700
O          1.36600        9.15300        4.48200
H          0.84200        8.45800        4.08300
H          1.39000        8.93000        5.41300
O          6.90300        8.06600       15.36900
H          6.88700        8.97000       15.05500
H          7.71300        8.00300       15.87600
O          4.74400        9.24700        7.20400
H          3.93100        9.04300        7.66700
H          4.97800        8.43100        6.76100
O          4.35600        4.58600        4.45600
H          4.14900        5.22000        5.14200
H          3.55400        4.52300        3.93700
O          4.00000        5.22400        1.13000
H          4.15100        4.69800        0.34400
H          3.24000        4.81900        1.54700
O         -0.30100       13.48900        1.27100
H          0.00100       12.58200        1.31500
H          0.50100       14.00500        1.18800
O          5.57700        7.29800        5.56200
H          6.37800        6.98200        5.14600
H          5.29700        6.57500        6.12200
O          8.84800        5.22400       15.58000
H          9.67300        5.61600       15.29300
H          8.40100        5.92600       16.05200
O          8.85900       11.16300        9.02200
H          9.11200       11.34800        9.92700
H          7.91600       11.00300        9.06600
O         10.71300        3.84000        9.62100
H         10.14500        3.65800       10.37000
H         11.18700        4.63500        9.86600
O          1.84700        4.57500       12.83300
H          2.37600        5.27700       12.45500
H          2.25600        4.39700       13.68000
O         11.94800        3.44200       15.74000
H         12.23100        2.60600       15.37100
H         11.11100        3.24700       16.16000
O         12.61700       13.72400       -0.14400
H         12.16800       14.37600        0.39400
H         12.34400       12.88200        0.22100
O          1.15100        8.71400       11.47800
H          1.95700        9.20400       11.64200
H          0.58100        8.93800       12.21400
O          2.63400       14.32100        0.99200
H          3.22400       13.89300        0.37300
H          2.52800       13.68600        1.70100
O         13.25200       12.31700        6.17900
H         13.25400       11.51300        5.65900
H         13.94300       12.18500        6.82800
O          2.82200       12.21200       10.00800
H          1.87100       12.25400       10.10900
H          3.06000       13.05300        9.61800
O          1.84100        4.00900        2.91300
H          1.28500        3.38100        3.37500
H          1.29400        4.33200        2.19700
O          8.90900        2.58300        2.89300
H          8.01200        2.75500        3.18000
H          9.36000        2.28600        3.68300
O          7.94900       14.67600        9.97000
H          8.30900       13.87800       10.35700
H          7.94300       15.30900       10.68700
O         14.17500        1.29800        9.02100
H         13.74200        0.52500        9.38200
H         15.03600        1.30700        9.44000
O         11.39100       11.37600       15.86200
H         10.71100       11.32300       16.53300
H         11.06300       10.83400       15.14400
O         16.14700        9.58400       13.58100
H         15.25200        9.34900       13.33700
H         16.04700       10.14400       14.35000
O          9.46700       15.56500       15.15600
H         10.07500       15.03100       15.66800
H          9.49500       16.42600       15.57300
O          2.56300       11.45900       14.76800
H          2.88900       10.82300       14.13200
H          3.27000       12.09900       14.85100
O         10.57700        1.33200       12.37600
H         10.47900        2.26900       12.20500
H          9.68000        1.01000       12.46800
O          1.33800       14.79700        8.67700
H          1.26400       14.68100        7.73000
H          1.94800       15.52700        8.78300
O          5.72500        0.86200        4.32800
H          5.06800        0.84800        3.63200
H          6.16200        0.01300        4.26200
O         12.78800        2.09000        2.55200
H         12.41900        1.49700        3.20700
H         13.43400        1.56000        2.08600
O          6.70900       13.55700        7.72200
H          6.94700       14.01400        8.52900
H          6.43200       12.68800        8.01200
O          6.83700        2.24800        8.09900
H          7.08800        2.59500        8.95500
H          7.63700        1.84500        7.76000
O          1.08900       10.47200        0.47200
H          1.68600       10.11000        1.12700
H          1.66200       10.91300       -0.15600
O          3.94800       10.99800        5.17500
H          4.44500       10.65400        5.91800
H          3.94200       10.28200        4.53900
O          9.55500        3.87400       12.24400
H          9.43500        4.78900       11.99200
H          8.92900        3.73800       12.95600
O          4.80500        7.82500        1.37400
H          4.52400        6.94200        1.61300
H          5.45700        7.69100        0.68600
O          3.41600       10.30300       12.04500
H          3.21900       10.98700       11.40500
H          4.34200       10.10400       11.90600
O          2.07000        5.09800        8.07500
H          1.28000        5.57300        7.81700
H          1.75800        4.22300        8.30500
O         14.18700        5.86000       13.75600
H         14.61100        5.51600       12.97000
H         14.80700        5.67600       14.46200
O         12.52500       -0.09100       10.99100
H         13.38300        0.17300       11.32400
H         11.91000        0.18000       11.67200
O          3.38000       10.06700        2.59800
H          2.73900        9.85600        3.27700
H          3.65800        9.21600        2.25800
O         13.56200        8.53400       14.07600
H         13.55300        8.54800       15.03300
H         13.87100        7.65700       13.85100
O         15.98000       11.15800        5.03500
H         15.27600       10.72400        5.51600
H         16.65800       10.48900        4.94600
O         14.94300        3.92800       15.81900
H         14.04600        3.65600       15.62200
H         15.49200        3.28900       15.36500
O         13.36200        5.19700        7.76200
H         13.61100        5.76100        7.03000
H         13.42000        4.30900        7.41000
O          2.26800       12.74100        2.96600
H          3.02700       12.21300        3.21300
H          1.54000       12.35500        3.45400
O         10.89400        6.68300       10.84800
H         10.51000        7.17100       10.12100
H         10.56400        7.12100       11.63300
O          6.42200       10.53500       14.46800
H          6.18900       11.42200       14.74200
H          6.20500       10.50700       13.53600
O          7.88100        0.90500       12.14000
H          7.36900        1.64000       12.47700
H          7.80100        0.22900       12.81200
O          1.72000        1.21600        0.35700
H          2.11600        0.34500        0.31000
H          2.29100        1.70700        0.94800
O         11.53100       12.20400        9.76500
H         11.28200       12.10300       10.68400
H         10.78700       11.85300        9.27600
O          9.50100        2.52800        0.27600
H          9.16600        3.34400       -0.09600
H          9.43500        2.65200        1.22300
O          9.04800        7.62200        0.62500
H          9.30800        8.52300        0.81700
H          9.21400        7.14600        1.43900
O         13.19100        1.33100        5.18600
H         13.19900        0.48900        5.64100
H         12.58800        1.87300        5.69600
O          3.12900        6.56400       10.51300
H          2.34900        6.30100       10.02500
H          3.14400        7.51800       10.44400
O          0.50900        7.74200        6.75100
H         -0.17000        7.98200        7.38200
H          0.18000        6.94400        6.33800
O         15.87200       13.71300       12.05500
H         15.60000       14.59000       12.32400
H         15.30800       13.12300       12.55600
O          6.08500       10.85000        8.79600
H          5.58900       10.30200        8.18900
H          5.48100       11.01100        9.52100
O          6.07200        2.99300       10.90100
H          6.50800        3.44700       11.62300
H          5.43000        2.42600       11.32800
O         10.74800       14.61400        4.87700
H          9.86700       14.37700        5.16800
H         11.04500       15.25900        5.51900
O          8.17700       13.49500        1.44000
H          7.85400       12.60700        1.28700
H          7.81100       13.73900        2.29000
O          3.45400        2.18000       11.55800
H          2.96300        2.97400       11.34600
H          2.93100        1.74800       12.23400
O          2.27100        0.84300       13.67200
H          2.47200        1.08500       14.57600
H          2.21500       -0.11200       13.68600
O         12.90700       14.88900        6.63800
H         12.60900       14.07600        6.22800
H         12.46200       14.90700        7.48500
O         14.73600        1.06400       12.35600
H         14.76900        1.43100       13.24000
H         15.44700        1.50200       11.88800
O          0.76700        5.00500        0.59100
H          0.92100        5.77400        0.04300
H         -0.09900        4.69300        0.32800
O          6.24500        3.03800       -0.12100
H          6.54600        3.79400        0.38200
H          6.76800        2.30700        0.21000
O          6.87500       14.05200       13.79000
H          7.65500       14.37600       14.24000
H          7.21600       13.52300       13.06900
O         14.83800        3.50500        4.74900
H         14.56100        2.62000        4.98700
H         14.72500        3.54500        3.80000
O         13.48700       13.77300        3.74400
H         13.38900       14.61000        3.29100
H         12.75500       13.74500        4.35900
O          9.11900       15.85200        7.91100
H          8.46600       15.41500        8.45700
H          9.95900       15.53600        8.24500
O          7.33800        6.07700       12.58100
H          7.07100        6.81500       12.03300
H          7.81400        6.47700       13.30800
O          1.28400        2.29700        7.84900
H          2.07400        1.95800        7.42800
H          0.56500        1.97000        7.30700
O          4.56500        0.47700       -0.22600
H          4.64100        0.46000        0.72800
H          4.72600        1.39000       -0.46300
O         11.94300        8.15000        7.56300
H         12.36100        8.15900        8.42400
H         12.09400        7.26400        7.23300
O         16.44700        5.32900        5.85000
H         15.87100        4.71900        5.39000
H         17.00500        4.76900        6.39100
O          7.43800        0.67500        1.01400
H          7.71600       -0.24000        1.04800
H          8.25500        1.17200        0.97600
O          6.75300        3.30900        4.32000
H          5.91800        3.76700        4.22700
H          6.52100        2.46200        4.70100
O         -0.21100        6.07700       11.71700
H          0.53100        5.51500       11.93900
H          0.14400        6.96600       11.74500
O         14.53300       15.41800        1.38400
H         14.13100       15.22600        0.53700
H         15.15000       14.70000        1.52400
O          5.37300       11.94900        1.60100
H          5.40700       12.32000        0.72000
H          5.00000       11.07600        1.47900
O          3.70200        1.60100        6.74700
H          4.64000        1.75600        6.85900
H          3.63400        1.14000        5.91100
O          4.76300        5.06300       12.49100
H          4.46200        5.96600       12.59400
H          5.63800        5.14300       12.11300
O          6.88900        7.77500       10.39600
H          6.69600        7.16400        9.68500
H          7.81400        7.99200       10.28100
O         13.01000        8.18300       10.08000
H         12.78200        8.98100       10.55800
H         12.64400        7.47500       10.60900
O         14.07900        9.88700        6.46100
H         14.21900        9.84700        7.40700
H         13.34600        9.29200        6.30300
O          7.70100       11.33200        3.68400
H          7.78400       11.30700        4.63700
H          7.23600       10.52500        3.46300
O         13.57300        8.25400        0.62500
H         13.83900        7.62100        1.29200
H         12.84300        8.72900        1.02300
O          4.46100        5.30700        6.98500
H          3.54200        5.22200        7.24000
H          4.94800        5.15700        7.79500
